*Heading
** Job name: c1m1_H0002 Model name: C1M1_H0002
** Generated by: Abaqus/CAE 2020
*Preprint, echo=NO, model=NO, history=NO, contact=NO
** ----------------------------------------------------------------
** 
** PART INSTANCE: C1M1-1
** 
*Node
      1,           0., 0.00141499995,           0.
      2, 0.000415999995, 0.00141499995,           0.
      3, 0.000415999995, 0.00158399995,           0.
      4,           0., 0.00158399995,           0.
      5, 0.00131600001, 0.00158399995,           0.
      6, 0.00131600001, 0.00200000009,           0.
      7, 0.000415999995, 0.00200000009,           0.
      8,           0., 0.000584000023,           0.
      9, 0.000415999995, 0.000584000023,           0.
     10, 0.00131600001, 0.00141499995,           0.
     11, 0.00214800006, 0.00158399995,           0.
     12, 0.00214800006, 0.00200000009,           0.
     13,           0., 0.000415999995,           0.
     14, 0.000415999995, 0.000415999995,           0.
     15, 0.00131600001, 0.000584000023,           0.
     16, 0.00131600001,           0.,           0.
     17, 0.00131600001, 0.000415999995,           0.
     18, 0.000415999995,           0.,           0.
     19, 0.00214800006, 0.00141499995,           0.
     20, 0.00304799993, 0.00158399995,           0.
** ... 800 like lines cut
*Element, type=S4RT
1,   1,  37, 301,  44
2,  37,  38, 302, 301
3,  38,  39, 303, 302
4,  39,   2,  40, 303
5,  44, 301,  43,   4
6, 301, 302,  42,  43
7, 302, 303,  41,  42
8, 303,  40,   3,  41
 9,   5,  45, 304,  66
10,  45,  46, 305, 304
11,  46,  47, 306, 305
12,  47,   6,  48, 306
13,  66, 304, 307,  65
14, 304, 305, 308, 307
15, 305, 306, 309, 308
16, 306,  48,  49, 309
17,  65, 307, 310,  64
18, 307, 308, 311, 310
19, 308, 309, 312, 311
20, 309,  49,  50, 312
** ... 788 like lines cut
*Nset, nset=C1M1-1_BL-Elasticity
   3,   4,   7,  10,  13,  14,  15,  18,  19,  20,  21,  24,  29,  30,  31,  32
  33,  34,  35,  36,  41,  42,  43,  56,  57,  58, 111, 112, 113, 123, 124, 125
 126, 127, 128, 129, 141, 142, 143, 153, 154, 155, 156, 157, 158, 159, 168, 169
 170, 183, 184, 185, 238, 239, 240, 250, 251, 252, 253, 254, 255, 256, 265, 266
 267, 268, 269, 270, 271, 273, 274, 275, 277, 278, 279, 280, 281, 282, 283, 284
 285, 286, 287, 288, 289, 290, 291, 292, 293, 294, 295, 296, 297, 298, 299, 300
 652, 653, 654, 655, 656, 657, 658, 659, 660, 670, 671, 672, 673, 674, 675, 676
 677, 678, 688, 689, 690, 691, 692, 693, 694, 695, 696, 763, 764, 765, 766, 767
 768, 769, 770, 771, 772, 773, 774, 775, 776, 777, 778, 779, 780, 781, 782, 783
 784, 785, 786, 787, 788, 789, 790, 791, 792, 793, 794, 795, 796, 797, 798, 799
 800, 801, 802, 803, 804, 805, 806, 807, 808, 809, 810, 811, 812, 813, 814, 815
 816, 817, 818, 819, 820
*Elset, elset=C1M1-1_BL-Elasticity
 551, 552, 553, 554, 555, 556, 557, 558, 559, 560, 561, 562, 563, 564, 565, 566
 583, 584, 585, 586, 587, 588, 589, 590, 591, 592, 593, 594, 595, 596, 597, 598
 615, 616, 617, 618, 619, 620, 621, 622, 623, 624, 625, 626, 627, 628, 629, 630
 729, 730, 731, 732, 733, 734, 735, 736, 737, 738, 739, 740, 741, 742, 743, 744
 745, 746, 747, 748, 749, 750, 751, 752, 753, 754, 755, 756, 757, 758, 759, 760
 761, 762, 763, 764, 765, 766, 767, 768, 769, 770, 771, 772, 773, 774, 775, 776
 777, 778, 779, 780, 781, 782, 783, 784, 785, 786, 787, 788, 789, 790, 791, 792
 793, 794, 795, 796, 797, 798, 799, 800, 801, 802, 803, 804, 805, 806, 807, 808
*Nset, nset=C1M1-1_BL-Plasticity
   1,   2,   3,   4,   5,   6,   7,   8,   9,  10,  11,  12,  13,  14,  15,  16
  17,  18,  19,  20,  21,  22,  23,  24,  25,  26,  27,  28,  29,  30,  31,  32
  37,  38,  39,  40,  41,  42,  43,  44,  45,  46,  47,  48,  49,  50,  51,  52
  53,  54,  55,  56,  57,  58,  59,  60,  61,  62,  63,  64,  65,  66,  67,  68
  69,  70,  71,  72,  73,  74,  75,  76,  77,  78,  79,  80,  81,  82,  83,  84
  85,  86,  87,  88,  89,  90,  91,  92,  93,  94,  95,  96,  97,  98,  99, 100
 101, 102, 103, 104, 105, 106, 107, 108, 109, 110, 111, 112, 113, 114, 115, 116
 117, 118, 119, 120, 121, 122, 123, 124, 125, 126, 127, 128, 129, 130, 131, 132
 133, 134, 135, 136, 137, 138, 139, 140, 141, 142, 143, 144, 145, 146, 147, 148
 149, 150, 151, 152, 153, 154, 155, 156, 157, 158, 159, 160, 161, 162, 163, 164
 165, 166, 167, 168, 169, 170, 171, 172, 173, 174, 175, 176, 177, 178, 179, 180
 181, 182, 183, 184, 185, 186, 187, 188, 189, 190, 191, 192, 193, 194, 195, 196
 197, 198, 199, 200, 201, 202, 203, 204, 205, 206, 207, 208, 209, 210, 211, 212
 213, 214, 215, 216, 217, 218, 219, 220, 221, 222, 223, 224, 225, 226, 227, 228
 229, 230, 231, 232, 233, 234, 235, 236, 237, 238, 239, 240, 241, 242, 243, 244
 245, 246, 247, 248, 249, 250, 251, 252, 253, 254, 255, 256, 257, 258, 259, 260
 261, 262, 263, 264, 265, 266, 267, 268, 269, 270, 271, 272, 273, 274, 275, 276
 301, 302, 303, 304, 305, 306, 307, 308, 309, 310, 311, 312, 313, 314, 315, 316
 317, 318, 319, 320, 321, 322, 323, 324, 325, 326, 327, 328, 329, 330, 331, 332
 333, 334, 335, 336, 337, 338, 339, 340, 341, 342, 343, 344, 345, 346, 347, 348
** ... 19 like lines cut
*Elset, elset=C1M1-1_BL-Plasticity
   1,   2,   3,   4,   5,   6,   7,   8,   9,  10,  11,  12,  13,  14,  15,  16
  17,  18,  19,  20,  21,  22,  23,  24,  25,  26,  27,  28,  29,  30,  31,  32
  33,  34,  35,  36,  37,  38,  39,  40,  41,  42,  43,  44,  45,  46,  47,  48
  49,  50,  51,  52,  53,  54,  55,  56,  57,  58,  59,  60,  61,  62,  63,  64
  65,  66,  67,  68,  69,  70,  71,  72,  73,  74,  75,  76,  77,  78,  79,  80
  81,  82,  83,  84,  85,  86,  87,  88,  89,  90,  91,  92,  93,  94,  95,  96
  97,  98,  99, 100, 101, 102, 103, 104, 105, 106, 107, 108, 109, 110, 111, 112
 113, 114, 115, 116, 117, 118, 119, 120, 121, 122, 123, 124, 125, 126, 127, 128
 129, 130, 131, 132, 133, 134, 135, 136, 137, 138, 139, 140, 141, 142, 143, 144
 145, 146, 147, 148, 149, 150, 151, 152, 153, 154, 155, 156, 157, 158, 159, 160
 161, 162, 163, 164, 165, 166, 167, 168, 169, 170, 171, 172, 173, 174, 175, 176
 177, 178, 179, 180, 181, 182, 183, 184, 185, 186, 187, 188, 189, 190, 191, 192
 193, 194, 195, 196, 197, 198, 199, 200, 201, 202, 203, 204, 205, 206, 207, 208
 209, 210, 211, 212, 213, 214, 215, 216, 217, 218, 219, 220, 221, 222, 223, 224
 225, 226, 227, 228, 229, 230, 231, 232, 233, 234, 235, 236, 237, 238, 239, 240
 241, 242, 243, 244, 245, 246, 247, 248, 249, 250, 251, 252, 253, 254, 255, 256
 257, 258, 259, 260, 261, 262, 263, 264, 265, 266, 267, 268, 269, 270, 271, 272
 273, 274, 275, 276, 277, 278, 279, 280, 281, 282, 283, 284, 285, 286, 287, 288
 289, 290, 291, 292, 293, 294, 295, 296, 297, 298, 299, 300, 301, 302, 303, 304
 305, 306, 307, 308, 309, 310, 311, 312, 313, 314, 315, 316, 317, 318, 319, 320
** ... 15 like lines cut
*Nset, nset=C1M1-1_bottom
  16,  18,  25,  29,  35,  36, 144, 145, 146, 147, 148, 149, 150, 151, 197, 198
 199, 200, 201, 202, 203, 230, 231, 232, 233, 234, 235, 236, 237, 289, 290, 291
 298, 299, 300
*Nset, nset=C1M1-1_PB_left
  36, 297, 296, 295,  13, 110,   8,  83,  82,  81,  80,  79,  78,  77,   1,  44
   4, 282, 281, 280,  33
*Nset, nset=C1M1-1_PB_right
  35, 292, 293, 294,  32, 276,  28, 216, 217, 218, 219, 220, 221, 222,  23, 182
  24, 283, 284, 285, 34
*Nset, nset=C1M1-1_top
   6,   7,  12,  21,  33,  34,  48,  49,  50,  51,  52,  53,  54,  55,  96,  97
  98,  99, 100, 101, 102, 171, 172, 173, 174, 175, 176, 177, 178, 277, 278, 279
 286, 287, 288
*System
** 
** MATERIALS
** 
*Material, name=Al
*Elastic
26300., 0.33
*Material, name=SiC
*Elastic
192300., 0.17
