*Heading
** Job name: C1M1_H0002-NP Model name: C1M1_H0002-NP
** Generated by: Abaqus/CAE 2020
*Preprint, echo=NO, model=NO, history=NO, contact=NO
** ----------------------------------------------------------------
** 
** PART INSTANCE: Part-1-1
** 
*Node
      1,           0.,           0.
      2, 8.65999973e-05,           0.
      3, 0.000173199995,           0.
      4, 0.000259799999,           0.
      5, 0.000346399989,           0.
      6, 0.000433000008,           0.
      7, 0.000519599998,           0.
      8, 0.000606200018,           0.
      9, 0.000692799978,           0.
     10, 0.000779399998,           0.
     11, 0.000866000017,           0.
     12, 0.000952599978,           0.
     13,    0.0010392,           0.
     14, 0.00112579996,           0.
     15, 0.00121240004,           0.
     16,     0.001299,           0.
     17, 0.00138559996,           0.
     18, 0.00147220003,           0.
     19,    0.0015588,           0.
     20, 0.00164539996,           0.
** ... 841 like lines cut
*Element, type=CPS4R
  1,   1,   2,  43,  42
  2,   2,   3,  44,  43
  3,   3,   4,  45,  44
  4,   4,   5,  46,  45
  5,   5,   6,  47,  46
  6,   6,   7,  48,  47
  7,   7,   8,  49,  48
  8,   8,   9,  50,  49
  9,   9,  10,  51,  50
 10,  10,  11,  52,  51
 11,  11,  12,  53,  52
 12,  12,  13,  54,  53
 13,  13,  14,  55,  54
 14,  14,  15,  56,  55
 15,  15,  16,  57,  56
 16,  16,  17,  58,  57
 17,  17,  18,  59,  58
 18,  18,  19,  60,  59
 19,  19,  20,  61,  60
 20,  20,  21,  62,  61
** ... 780 like lines cut
*System
*Nset, nset=bottom, generate
  1,  41,   1
*Nset, nset=left, generate
   1,  821,   41
*Nset, nset=right, generate
  41,  861,   41
*Nset, nset=top, generate
 821,  861,    1
** 
** MATERIALS
** 
*Material, name=Al
*Elastic
26300., 0.33
*Material, name=SiC
*Elastic
192300., 0.17
