*Heading
** Job name: c1m2_H0002 Model name: c1m2_H0002
** Generated by: Abaqus/CAE 2020
*Preprint, echo=NO, model=NO, history=NO, contact=NO
** ----------------------------------------------------------------
** 
** PART INSTANCE: Part-1-1
** 
*Node
      1, 0.00173200003, 0.000587999995
      2, 0.00202600006, 0.000587999995
      3, 0.00202600006, 0.00100000005
      4, 0.00173200003, 0.00100000005
      5, 0.00143800001, 0.000587999995
      6, 0.00143800001, 0.00100000005
      7, 0.00143800001, 0.00141200004
      8, 0.00173200003, 0.00141200004
      9, 0.00173200003, 0.00158799998
     10, 0.00143800001, 0.00158799998
     11, 0.00202600006, 0.00141200004
     12, 0.00316999992, 0.000587999995
     13, 0.00316999992, 0.00100000005
     14, 0.000293999998, 0.000587999995
     15, 0.000293999998, 0.00100000005
     16, 0.00316999992, 0.00141200004
     17, 0.000293999998, 0.00141200004
     18, 0.00202600006, 0.00158799998
     19, 0.00143800001, 0.000411999994
     20, 0.00173200003, 0.000411999994
** ... 2045 like lines cut
*Element, type=CPE4R
 1,   1,  46, 594,  65
 2,  46,  47, 595, 594
 3,  47,  48, 596, 595
 4,  48,  49, 597, 596
 5,  49,   2,  50, 597
 6,  65, 594, 598,  64
 7, 594, 595, 599, 598
 8, 595, 596, 600, 599
 9, 596, 597, 601, 600
10, 597,  50,  51, 601
11,  64, 598, 602,  63
12, 598, 599, 603, 602
13, 599, 600, 604, 603
14, 600, 601, 605, 604
15, 601,  51,  52, 605
16,  63, 602, 606,  62
17, 602, 603, 607, 606
18, 603, 604, 608, 607
19, 604, 605, 609, 608
20, 605,  52,  53, 609
** ... 1952 like lines cut
*Nset, nset=Part-1-1_Mat_SiC
    1,    2,    3,    4,    5,    6,    7,    8,    9,   10,   11,   12,   14,   16,   17,   18
   19,   20,   22,   23,   24,   26,   27,   29,   33,   34,   36,   38,   39,   40,   41,   42
   43,   44,   45,   46,   47,   48,   49,   50,   51,   52,   53,   54,   55,   56,   57,   58
   59,   60,   61,   62,   63,   64,   65,   66,   67,   68,   69,   70,   71,   72,   73,   74
   75,   76,   77,   78,   79,   80,   81,   82,   83,   84,   85,   86,   87,   88,   89,   90
   91,   92,   93,   94,   95,   96,   97,   98,   99,  100,  101,  102,  103,  104,  105,  106
  107,  240,  241,  242,  243,  244,  245,  246,  247,  248,  249,  250,  251,  252,  253,  254
  255,  256,  257,  258,  259,  264,  265,  266,  267,  292,  293,  300,  301,  302,  303,  328
  329,  330,  331,  332,  333,  334,  335,  364,  365,  366,  367,  368,  369,  432,  433,  434
  435,  436,  437,  466,  467,  468,  469,  476,  477,  478,  479,  484,  485,  486,  487,  488
  489,  532,  533,  534,  535,  536,  537,  538,  539,  540,  541,  542,  543,  544,  545,  546
  547,  548,  549,  550,  551,  552,  553,  554,  555,  556,  557,  558,  559,  560,  561,  562
  563,  564,  565,  566,  567,  568,  569,  570,  571,  572,  573,  574,  575,  576,  577,  578
  579,  580,  581,  582,  583,  584,  585,  586,  587,  588,  589,  590,  591,  592,  593,  594
  595,  596,  597,  598,  599,  600,  601,  602,  603,  604,  605,  606,  607,  608,  609,  610
  611,  612,  613,  614,  615,  616,  617,  618,  619,  620,  621,  622,  623,  624,  625,  626
  627,  628,  629,  630,  631,  632,  633,  634,  635,  636,  637,  638,  639,  640,  641,  642
  643,  644,  645,  646,  647,  648,  649,  650,  651,  652,  653,  654,  655,  656,  657,  658
  659,  660,  661,  662,  663,  664,  665,  666,  667,  668,  669,  670,  671,  672,  673, 1106
 1107, 1108, 1109, 1110, 1111, 1112, 1113, 1114, 1115, 1116, 1117, 1118, 1119, 1120, 1121, 1122
** ... 11 like lines cut
*Elset, elset=Part-1-1_Mat_SiC
    1,    2,    3,    4,    5,    6,    7,    8,    9,   10,   11,   12,   13,   14,   15,   16
   17,   18,   19,   20,   21,   22,   23,   24,   25,   26,   27,   28,   29,   30,   31,   32
   33,   34,   35,   36,   37,   38,   39,   40,   41,   42,   43,   44,   45,   46,   47,   48
   49,   50,   51,   52,   53,   54,   55,   56,   57,   58,   59,   60,   61,   62,   63,   64
   65,   66,   67,   68,   69,   70,   71,   72,   73,   74,   75,   76,   77,   78,   79,   80
   81,   82,   83,   84,   85,   86,   87,   88,   89,   90,   91,   92,   93,   94,   95,   96
   97,   98,   99,  100,  101,  102,  103,  104,  105,  106,  107,  108,  109,  110,  111,  112
  113,  114,  115,  116,  117,  118,  119,  120,  653,  654,  655,  656,  657,  658,  659,  660
  661,  662,  663,  664,  665,  666,  667,  668,  669,  670,  671,  672,  673,  674,  675,  676
  677,  678,  679,  680,  681,  682,  683,  684,  685,  686,  687,  688,  689,  690,  691,  692
  693,  694,  695,  696,  697,  698,  699,  700,  701,  702,  703,  704,  705,  706,  707,  708
  709,  710,  711,  712,  713,  714,  715,  716,  717, 1758, 1759, 1760, 1761, 1762, 1763, 1764
 1765, 1766, 1767, 1768, 1769, 1770, 1771, 1772, 1773, 1774, 1775, 1776, 1777, 1778, 1779, 1780
 1781, 1782, 1783, 1784, 1785, 1786, 1787, 1788, 1789, 1790, 1791, 1792, 1793, 1794, 1795, 1796
 1797, 1798, 1799, 1800, 1801, 1802, 1803, 1804, 1805, 1806, 1807, 1808, 1809, 1810, 1811, 1812
 1813, 1814, 1815, 1816, 1817, 1818, 1819, 1820, 1821, 1822, 1823, 1824, 1825, 1826, 1827, 1828
 1829, 1830, 1831, 1832, 1833, 1834, 1835, 1836, 1837, 1838, 1839, 1840, 1841, 1842, 1843, 1844
 1845, 1846, 1847, 1848, 1849, 1850, 1851, 1852, 1853, 1854, 1855, 1856, 1857, 1858, 1859, 1860
 1861, 1862, 1863, 1864, 1865, 1866, 1867, 1868, 1869, 1870, 1871, 1872, 1873, 1874, 1875, 1876
 1877, 1878, 1879, 1880, 1881, 1882, 1883, 1884, 1885, 1886, 1887, 1888, 1889, 1890, 1891, 1892
** ... 5 like lines cut
*Nset, nset=Part-1-1_Mat_AL
    2,    3,    5,    6,    7,    9,   10,   11,   12,   13,   14,   15,   16,   17,   18,   19
   20,   21,   22,   23,   24,   25,   26,   27,   28,   29,   30,   31,   32,   33,   34,   35
   36,   37,   38,   39,   40,   41,   50,   51,   52,   53,   54,   55,   74,   75,   76,   77
   78,   79,   86,   87,   88,   89,   90,   91,  102,  103,  104,  105,  106,  107,  108,  109
  110,  111,  112,  113,  114,  115,  116,  117,  118,  119,  120,  121,  122,  123,  124,  125
  126,  127,  128,  129,  130,  131,  132,  133,  134,  135,  136,  137,  138,  139,  140,  141
  142,  143,  144,  145,  146,  147,  148,  149,  150,  151,  152,  153,  154,  155,  156,  157
  158,  159,  160,  161,  162,  163,  164,  165,  166,  167,  168,  169,  170,  171,  172,  173
  174,  175,  176,  177,  178,  179,  180,  181,  182,  183,  184,  185,  186,  187,  188,  189
  190,  191,  192,  193,  194,  195,  196,  197,  198,  199,  200,  201,  202,  203,  204,  205
  206,  207,  208,  209,  210,  211,  212,  213,  214,  215,  216,  217,  218,  219,  220,  221
  222,  223,  224,  225,  226,  227,  228,  229,  230,  231,  232,  233,  234,  235,  236,  237
  238,  239,  240,  241,  242,  243,  244,  245,  246,  247,  248,  249,  250,  251,  252,  253
  254,  255,  256,  257,  260,  261,  262,  263,  264,  265,  266,  267,  268,  269,  270,  271
  272,  273,  274,  275,  276,  277,  278,  279,  280,  281,  282,  283,  284,  285,  286,  287
  288,  289,  290,  291,  292,  293,  294,  295,  296,  297,  298,  299,  300,  301,  302,  303
  304,  305,  306,  307,  308,  309,  310,  311,  312,  313,  314,  315,  316,  317,  318,  319
  320,  321,  322,  323,  324,  325,  326,  327,  328,  329,  330,  331,  332,  333,  334,  335
  336,  337,  338,  339,  340,  341,  342,  343,  344,  345,  346,  347,  348,  349,  350,  351
  352,  353,  354,  355,  356,  357,  358,  359,  360,  361,  362,  363,  364,  365,  366,  367
** ... 86 like lines cut
*Elset, elset=Part-1-1_Mat_AL
  121,  122,  123,  124,  125,  126,  127,  128,  129,  130,  131,  132,  133,  134,  135,  136
  137,  138,  139,  140,  141,  142,  143,  144,  145,  146,  147,  148,  149,  150,  151,  152
  153,  154,  155,  156,  157,  158,  159,  160,  161,  162,  163,  164,  165,  166,  167,  168
  169,  170,  171,  172,  173,  174,  175,  176,  177,  178,  179,  180,  181,  182,  183,  184
  185,  186,  187,  188,  189,  190,  191,  192,  193,  194,  195,  196,  197,  198,  199,  200
  201,  202,  203,  204,  205,  206,  207,  208,  209,  210,  211,  212,  213,  214,  215,  216
  217,  218,  219,  220,  221,  222,  223,  224,  225,  226,  227,  228,  229,  230,  231,  232
  233,  234,  235,  236,  237,  238,  239,  240,  241,  242,  243,  244,  245,  246,  247,  248
  249,  250,  251,  252,  253,  254,  255,  256,  257,  258,  259,  260,  261,  262,  263,  264
  265,  266,  267,  268,  269,  270,  271,  272,  273,  274,  275,  276,  277,  278,  279,  280
  281,  282,  283,  284,  285,  286,  287,  288,  289,  290,  291,  292,  293,  294,  295,  296
  297,  298,  299,  300,  301,  302,  303,  304,  305,  306,  307,  308,  309,  310,  311,  312
  313,  314,  315,  316,  317,  318,  319,  320,  321,  322,  323,  324,  325,  326,  327,  328
  329,  330,  331,  332,  333,  334,  335,  336,  337,  338,  339,  340,  341,  342,  343,  344
  345,  346,  347,  348,  349,  350,  351,  352,  353,  354,  355,  356,  357,  358,  359,  360
  361,  362,  363,  364,  365,  366,  367,  368,  369,  370,  371,  372,  373,  374,  375,  376
  377,  378,  379,  380,  381,  382,  383,  384,  385,  386,  387,  388,  389,  390,  391,  392
  393,  394,  395,  396,  397,  398,  399,  400,  401,  402,  403,  404,  405,  406,  407,  408
  409,  410,  411,  412,  413,  414,  415,  416,  417,  418,  419,  420,  421,  422,  423,  424
  425,  426,  427,  428,  429,  430,  431,  432,  433,  434,  435,  436,  437,  438,  439,  440
** ... 79 like lines cut
*Nset, nset=Part-1-1_bottom
  29,  30,  32,  37,  41,  43,  44, 370, 371, 372, 373, 374, 375, 376, 377, 378
 379, 380, 381, 382, 383, 384, 385, 386, 387, 410, 411, 412, 413, 480, 481, 482
 483, 514, 515, 516, 517, 518, 519, 520, 521, 522, 523, 524, 525, 526, 527, 528
 529, 530, 531, 555, 556, 557, 558, 577, 578, 579, 580
*Nset, nset=Part-1-1_cpoint
 4,
*Nset, nset=Part-1-1_left
  21,  22,  24,  44,  45, 268, 269, 270, 271, 272, 273, 294, 295, 296, 297, 298
 299, 568, 569, 570, 571, 572, 573, 574, 575, 576, 585, 586, 587, 588, 589, 590
 591, 592, 593
*Nset, nset=Part-1-1_right
  35,  36,  39,  42,  43, 460, 461, 462, 463, 464, 465, 490, 491, 492, 493, 494
 495, 542, 543, 544, 545, 546, 547, 548, 549, 550, 559, 560, 561, 562, 563, 564
 565, 566, 567
*Nset, nset=Part-1-1_top
  25,  26,  28,  31,  34,  42,  45, 310, 311, 312, 313, 314, 315, 316, 317, 318
 319, 320, 321, 322, 323, 324, 325, 326, 327, 360, 361, 362, 363, 400, 401, 402
 403, 438, 439, 440, 441, 442, 443, 444, 445, 446, 447, 448, 449, 450, 451, 452
 453, 454, 455, 551, 552, 553, 554, 581, 582, 583, 584
** Section: SiC
*Solid Section, elset=Part-1-1_Mat_SiC, material=SiC
,
** Section: Al
*Solid Section, elset=Part-1-1_Mat_AL, material=Al
,
*System
** 
** MATERIALS
** 
*Material, name=Al
*Elastic
27900., 0.33
*Material, name=SiC
*Elastic
192000., 0.17
** 
** BOUNDARY CONDITIONS
** 
** Name: BC-Fixed_bottom Type: Symmetry/Antisymmetry/Encastre
*Boundary
Part-1-1_bottom, ENCASTRE
** ----------------------------------------------------------------
** 
** STEP: Top_disp
** 
*Step, name=Top_disp, nlgeom=YES
Applied an unloading displacement on the top boundary
*Static
0.02, 0.116, 1.16e-06, 0.116
** 
** BOUNDARY CONDITIONS
** 
** Name: BC-Top_disp Type: Displacement/Rotation
*Boundary
Part-1-1_top, 1, 1, 1.16e-05
Part-1-1_top, 2, 2
Part-1-1_top, 6, 6
** 
** OUTPUT REQUESTS
** 
*Restart, write, frequency=0
** 
** FIELD OUTPUT: F-Output-1
** 
*Output, field, variable=PRESELECT
** 
** HISTORY OUTPUT: H-Output-1
** 
*Output, history, variable=PRESELECT
*End Step
** ----------------------------------------------------------------
** 
** STEP: Top_disp_reverse
** 
*Step, name=Top_disp_reverse, nlgeom=YES
*Static
0.02, 0.116, 1.16e-06, 0.116
** 
** BOUNDARY CONDITIONS
** 
** Name: BC-Top_disp Type: Displacement/Rotation
*Boundary
Part-1-1_top, 1, 1, -1.16e-05
** 
** OUTPUT REQUESTS
** 
*Restart, write, frequency=0
** 
** FIELD OUTPUT: F-Output-1
** 
*Output, field, variable=PRESELECT
** 
** HISTORY OUTPUT: H-Output-1
** 
*Output, history, variable=PRESELECT
*End Step
