*Heading
** Job name: c1m1_H0002_remesh Model name: C1M1_H0002_remesh
** Generated by: Abaqus/CAE 2020
*Preprint, echo=NO, model=NO, history=NO, contact=NO
** ----------------------------------------------------------------
** 
** PART INSTANCE: C1M1-1
** 
*Node
      1,           0., 0.00141499995,           0.
      2, 0.000415999995, 0.00141499995,           0.
      3, 0.000415999995, 0.00158399995,           0.
      4,           0., 0.00158399995,           0.
      5, 0.00131600001, 0.00158399995,           0.
      6, 0.00131600001, 0.00200000009,           0.
      7, 0.000415999995, 0.00200000009,           0.
      8,           0., 0.000584000023,           0.
      9, 0.000415999995, 0.000584000023,           0.
     10, 0.00131600001, 0.00141499995,           0.
     11, 0.00214800006, 0.00158399995,           0.
     12, 0.00214800006, 0.00200000009,           0.
     13,           0., 0.000415999995,           0.
     14, 0.000415999995, 0.000415999995,           0.
     15, 0.00131600001, 0.000584000023,           0.
     16, 0.00131600001,           0.,           0.
     17, 0.00131600001, 0.000415999995,           0.
     18, 0.000415999995,           0.,           0.
     19, 0.00214800006, 0.00141499995,           0.
     20, 0.00304799993, 0.00158399995,           0.
** ... 3232 like lines cut
*Element, type=S4RT
 1,   1,  37, 625,  54
 2,  37,  38, 626, 625
 3,  38,  39, 627, 626
 4,  39,  40, 628, 627
 5,  40,  41, 629, 628
 6,  41,  42, 630, 629
 7,  42,  43, 631, 630
 8,  43,   2,  44, 631
 9,  54, 625, 632,  53
10, 625, 626, 633, 632
11, 626, 627, 634, 633
12, 627, 628, 635, 634
13, 628, 629, 636, 635
14, 629, 630, 637, 636
15, 630, 631, 638, 637
16, 631,  44,  45, 638
17,  53, 632,  52,   4
18, 632, 633,  51,  52
19, 633, 634,  50,  51
20, 634, 635,  49,  50
** ... 3216 like lines cut
*Nset, nset=C1M1-1_Set-BL0
    1,    2,    3,    4,    5,    6,    7,    8,    9,   10,   11,   12,   13,   14,   15,   16
   17,   18,   19,   20,   21,   22,   23,   24,   25,   26,   27,   28,   29,   30,   31,   32
   37,   38,   39,   40,   41,   42,   43,   44,   45,   46,   47,   48,   49,   50,   51,   52
   53,   54,   55,   56,   57,   58,   59,   60,   61,   62,   63,   64,   65,   66,   67,   68
   69,   70,   71,   72,   73,   74,   75,   76,   77,   78,   79,   80,   81,   82,   83,   84
   85,   86,   87,   88,   89,   90,   91,   92,   93,   94,   95,   96,   97,   98,   99,  100
  101,  102,  103,  104,  105,  106,  107,  108,  109,  110,  111,  112,  113,  114,  115,  116
  117,  118,  119,  120,  121,  122,  123,  124,  125,  126,  127,  128,  129,  130,  131,  132
  133,  134,  135,  136,  137,  138,  139,  140,  141,  142,  143,  144,  145,  146,  147,  148
  149,  150,  151,  152,  153,  154,  155,  156,  157,  158,  159,  160,  161,  162,  163,  164
  165,  166,  167,  168,  169,  170,  171,  172,  173,  174,  175,  176,  177,  178,  179,  180
  181,  182,  183,  184,  185,  186,  187,  188,  189,  190,  191,  192,  193,  194,  195,  196
  197,  198,  199,  200,  201,  202,  203,  204,  205,  206,  207,  208,  209,  210,  211,  212
  213,  214,  215,  216,  217,  218,  219,  220,  221,  222,  223,  224,  225,  226,  227,  228
  229,  230,  231,  232,  233,  234,  235,  236,  237,  238,  239,  240,  241,  242,  243,  244
  245,  246,  247,  248,  249,  250,  251,  252,  253,  254,  255,  256,  257,  258,  259,  260
  261,  262,  263,  264,  265,  266,  267,  268,  269,  270,  271,  272,  273,  274,  275,  276
  277,  278,  279,  280,  281,  282,  283,  284,  285,  286,  287,  288,  289,  290,  291,  292
  293,  294,  295,  296,  297,  298,  299,  300,  301,  302,  303,  304,  305,  306,  307,  308
  309,  310,  311,  312,  313,  314,  315,  316,  317,  318,  319,  320,  321,  322,  323,  324
** ... 123 like lines cut
*Elset, elset=C1M1-1_Set-BL0
    1,    2,    3,    4,    5,    6,    7,    8,    9,   10,   11,   12,   13,   14,   15,   16
   17,   18,   19,   20,   21,   22,   23,   24,   25,   26,   27,   28,   29,   30,   31,   32
   33,   34,   35,   36,   37,   38,   39,   40,   41,   42,   43,   44,   45,   46,   47,   48
   49,   50,   51,   52,   53,   54,   55,   56,   57,   58,   59,   60,   61,   62,   63,   64
   65,   66,   67,   68,   69,   70,   71,   72,   73,   74,   75,   76,   77,   78,   79,   80
   81,   82,   83,   84,   85,   86,   87,   88,   89,   90,   91,   92,   93,   94,   95,   96
   97,   98,   99,  100,  101,  102,  103,  104,  105,  106,  107,  108,  109,  110,  111,  112
  113,  114,  115,  116,  117,  118,  119,  120,  121,  122,  123,  124,  125,  126,  127,  128
  129,  130,  131,  132,  133,  134,  135,  136,  137,  138,  139,  140,  141,  142,  143,  144
  145,  146,  147,  148,  149,  150,  151,  152,  153,  154,  155,  156,  157,  158,  159,  160
  161,  162,  163,  164,  165,  166,  167,  168,  169,  170,  171,  172,  173,  174,  175,  176
  177,  178,  179,  180,  181,  182,  183,  184,  185,  186,  187,  188,  189,  190,  191,  192
  193,  194,  195,  196,  197,  198,  199,  200,  201,  202,  203,  204,  205,  206,  207,  208
  209,  210,  211,  212,  213,  214,  215,  216,  217,  218,  219,  220,  221,  222,  223,  224
  225,  226,  227,  228,  229,  230,  231,  232,  233,  234,  235,  236,  237,  238,  239,  240
  241,  242,  243,  244,  245,  246,  247,  248,  249,  250,  251,  252,  253,  254,  255,  256
  257,  258,  259,  260,  261,  262,  263,  264,  265,  266,  267,  268,  269,  270,  271,  272
  273,  274,  275,  276,  277,  278,  279,  280,  281,  282,  283,  284,  285,  286,  287,  288
  289,  290,  291,  292,  293,  294,  295,  296,  297,  298,  299,  300,  301,  302,  303,  304
  305,  306,  307,  308,  309,  310,  311,  312,  313,  314,  315,  316,  317,  318,  319,  320
** ... 115 like lines cut
*Nset, nset=C1M1-1_Set-BL1
   13,   14,   18,   36,  202,  203,  204,  205,  206,  207,  208,  268,  269,  270,  271,  272
  273,  274,  611,  612,  613,  614,  615,  616,  617,  618,  619,  620,  621,  622,  623,  624
 2948, 2949, 2950, 2951, 2952, 2953, 2954, 2955, 2956, 2957, 2958, 2959, 2960, 2961, 2962, 2963
 2964, 2965, 2966, 2967, 2968, 2969, 2970, 2971, 2972, 2973, 2974, 2975, 2976, 2977, 2978, 2979
 2980, 2981, 2982, 2983, 2984, 2985, 2986, 2987, 2988, 2989, 2990, 2991, 2992, 2993, 2994, 2995
 2996,
*Elset, elset=C1M1-1_Set-BL1, generate
 2884,  2947,     1
*Nset, nset=C1M1-1_Set-BL2
   29,   30,   32,   35,  483,  484,  485,  486,  487,  488,  489,  560,  561,  562,  563,  564
  565,  566,  597,  598,  599,  600,  601,  602,  603,  604,  605,  606,  607,  608,  609,  610
 2560, 2561, 2562, 2563, 2564, 2565, 2566, 2567, 2568, 2569, 2570, 2571, 2572, 2573, 2574, 2575
 2576, 2577, 2578, 2579, 2580, 2581, 2582, 2583, 2584, 2585, 2586, 2587, 2588, 2589, 2590, 2591
 2592, 2593, 2594, 2595, 2596, 2597, 2598, 2599, 2600, 2601, 2602, 2603, 2604, 2605, 2606, 2607
 2608,
*Elset, elset=C1M1-1_Set-BL2, generate
 2413,  2476,     1
*Nset, nset=C1M1-1_Set-BL3
   20,   21,   24,   34,  327,  328,  329,  330,  331,  332,  333,  360,  361,  362,  363,  364
  365,  366,  583,  584,  585,  586,  587,  588,  589,  590,  591,  592,  593,  594,  595,  596
 2462, 2463, 2464, 2465, 2466, 2467, 2468, 2469, 2470, 2471, 2472, 2473, 2474, 2475, 2476, 2477
 2478, 2479, 2480, 2481, 2482, 2483, 2484, 2485, 2486, 2487, 2488, 2489, 2490, 2491, 2492, 2493
 2494, 2495, 2496, 2497, 2498, 2499, 2500, 2501, 2502, 2503, 2504, 2505, 2506, 2507, 2508, 2509
 2510,
*Elset, elset=C1M1-1_Set-BL3, generate
 2285,  2348,     1
*Nset, nset=C1M1-1_Set-BL4
    3,    4,    7,   33,   46,   47,   48,   49,   50,   51,   52,   79,   80,   81,   82,   83
   84,   85,  569,  570,  571,  572,  573,  574,  575,  576,  577,  578,  579,  580,  581,  582
 2364, 2365, 2366, 2367, 2368, 2369, 2370, 2371, 2372, 2373, 2374, 2375, 2376, 2377, 2378, 2379
 2380, 2381, 2382, 2383, 2384, 2385, 2386, 2387, 2388, 2389, 2390, 2391, 2392, 2393, 2394, 2395
 2396, 2397, 2398, 2399, 2400, 2401, 2402, 2403, 2404, 2405, 2406, 2407, 2408, 2409, 2410, 2411
 2412,
*Elset, elset=C1M1-1_Set-BL4, generate
 2157,  2220,     1
*Nset, nset=C1M1-1_Set-BL5
   10,   15,   19,   31,  228,  229,  230,  231,  232,  233,  234,  235,  236,  237,  238,  239
  240,  241,  242,  243,  294,  295,  296,  297,  298,  299,  300,  301,  302,  303,  304,  305
  306,  307,  308,  309,  509,  510,  511,  512,  513,  514,  515,  516,  517,  518,  519,  520
  521,  522,  523,  524,  542,  543,  544,  545,  546,  547,  548,  549,  550,  551,  552,  553
  554,  555,  556,  557, 2997, 2998, 2999, 3000, 3001, 3002, 3003, 3004, 3005, 3006, 3007, 3008
 3009, 3010, 3011, 3012, 3013, 3014, 3015, 3016, 3017, 3018, 3019, 3020, 3021, 3022, 3023, 3024
 3025, 3026, 3027, 3028, 3029, 3030, 3031, 3032, 3033, 3034, 3035, 3036, 3037, 3038, 3039, 3040
 3041, 3042, 3043, 3044, 3045, 3046, 3047, 3048, 3049, 3050, 3051, 3052, 3053, 3054, 3055, 3056
 3057, 3058, 3059, 3060, 3061, 3062, 3063, 3064, 3065, 3066, 3067, 3068, 3069, 3070, 3071, 3072
 3073, 3074, 3075, 3076, 3077, 3078, 3079, 3080, 3081, 3082, 3083, 3084, 3085, 3086, 3087, 3088
 3089, 3090, 3091, 3092, 3093, 3094, 3095, 3096, 3097, 3098, 3099, 3100, 3101, 3102, 3103, 3104
 3105, 3106, 3107, 3108, 3109, 3110, 3111, 3112, 3113, 3114, 3115, 3116, 3117, 3118, 3119, 3120
 3121, 3122, 3123, 3124, 3125, 3126, 3127, 3128, 3129, 3130, 3131, 3132, 3133, 3134, 3135, 3136
 3137, 3138, 3139, 3140, 3141, 3142, 3143, 3144, 3145, 3146, 3147, 3148, 3149, 3150, 3151, 3152
 3153, 3154, 3155, 3156, 3157, 3158, 3159, 3160, 3161, 3162, 3163, 3164, 3165, 3166, 3167, 3168
 3169, 3170, 3171, 3172, 3173, 3174, 3175, 3176, 3177, 3178, 3179, 3180, 3181, 3182, 3183, 3184
 3185, 3186, 3187, 3188, 3189, 3190, 3191, 3192, 3193, 3194, 3195, 3196, 3197, 3198, 3199, 3200
 3201, 3202, 3203, 3204, 3205, 3206, 3207, 3208, 3209, 3210, 3211, 3212, 3213, 3214, 3215, 3216
 3217, 3218, 3219, 3220, 3221, 3222, 3223, 3224, 3225, 3226, 3227, 3228, 3229, 3230, 3231, 3232
 3233, 3234, 3235, 3236, 3237, 3238, 3239, 3240, 3241, 3242, 3243, 3244, 3245, 3246, 3247, 3248
 3249, 3250, 3251, 3252
*Elset, elset=C1M1-1_Set-BL5, generate
 2948,  3236,     1
*Nset, nset=C1M1-1_PB_left
   1,   4,   8,  13,  33,  36,  53,  54, 126, 127, 128, 129, 130, 131, 132, 133
 134, 135, 136, 137, 138, 139, 140, 141, 200, 201, 576, 577, 578, 579, 580, 581
 582, 611, 612, 613, 614, 615, 616, 617
*Nset, nset=C1M1-1_PB_right
  23,  24,  28,  32,  34,  35, 358, 359, 434, 435, 436, 437, 438, 439, 440, 441
 442, 443, 444, 445, 446, 447, 448, 449, 567, 568, 583, 584, 585, 586, 587, 588
 589, 604, 605, 606, 607, 608, 609, 610
*Nset, nset=C1M1-1_bottom
  16,  18,  25,  29,  35,  36, 275, 276, 277, 278, 279, 280, 281, 282, 283, 284
 285, 286, 287, 288, 289, 290, 291, 392, 393, 394, 395, 396, 397, 398, 399, 400
 401, 402, 403, 404, 405, 406, 407, 466, 467, 468, 469, 470, 471, 472, 473, 474
 475, 476, 477, 478, 479, 480, 481, 482, 597, 598, 599, 600, 601, 602, 603, 618
 619, 620, 621, 622, 623, 624
*Nset, nset=C1M1-1_top
   6,   7,  12,  21,  33,  34,  62,  63,  64,  65,  66,  67,  68,  69,  70,  71
  72,  73,  74,  75,  76,  77,  78, 168, 169, 170, 171, 172, 173, 174, 175, 176
 177, 178, 179, 180, 181, 182, 183, 334, 335, 336, 337, 338, 339, 340, 341, 342
 343, 344, 345, 346, 347, 348, 349, 350, 569, 570, 571, 572, 573, 574, 575, 590
 591, 592, 593, 594, 595, 596
*System
** 
** MATERIALS
** 
*Material, name=Al
*Elastic
26300., 0.33
*Material, name=SiC
*Elastic
192300., 0.17
